Aspirina
 OpenBabel04032412433D

 21 21  0  0  0  0  0  0  0  0999 V2000
    0.9883   -0.0898    0.8763 C   0  0  0  0  0  0  0  0  0  0  0  0
    2.4213    0.0552    1.2768 C   0  0  0  0  0  0  0  0  0  0  0  0
    2.7413    0.9488    2.0454 O   0  0  0  0  0  0  0  0  0  0  0  0
    3.3231   -0.8539    0.8136 O   0  0  0  0  0  0  0  0  0  0  0  0
    4.6807   -0.8696    0.8919 C   0  0  0  0  0  0  0  0  0  0  0  0
    5.4148    0.3013    1.1970 C   0  0  0  0  0  0  0  0  0  0  0  0
    6.8051    0.2790    1.2685 C   0  0  0  0  0  0  0  0  0  0  0  0
    7.4955   -0.9020    1.0359 C   0  0  0  0  0  0  0  0  0  0  0  0
    6.7997   -2.0672    0.7247 C   0  0  0  0  0  0  0  0  0  0  0  0
    5.3878   -2.0847    0.6407 C   0  0  0  0  0  0  0  0  0  0  0  0
    4.7356   -3.4026    0.2936 C   0  0  0  0  0  0  0  0  0  0  0  0
    5.4475   -4.3783    0.1081 O   0  0  0  0  0  0  0  0  0  0  0  0
    3.4005   -3.5905    0.1687 O   0  0  0  0  0  0  0  0  0  0  0  0
    0.3648    0.7024    1.3434 H   0  0  0  0  0  0  0  0  0  0  0  0
    0.6119   -1.0822    1.2009 H   0  0  0  0  0  0  0  0  0  0  0  0
    0.9033   -0.0105   -0.2275 H   0  0  0  0  0  0  0  0  0  0  0  0
    4.9353    1.2504    1.3711 H   0  0  0  0  0  0  0  0  0  0  0  0
    7.3499    1.1849    1.5024 H   0  0  0  0  0  0  0  0  0  0  0  0
    8.5765   -0.9154    1.0919 H   0  0  0  0  0  0  0  0  0  0  0  0
    7.3804   -2.9636    0.5468 H   0  0  0  0  0  0  0  0  0  0  0  0
    2.7113   -2.9307    0.2773 H   0  0  0  0  0  0  0  0  0  0  0  0
  1  2  1  0  0  0  0
  1 14  1  0  0  0  0
  1 15  1  0  0  0  0
  1 16  1  0  0  0  0
  2  3  2  0  0  0  0
  2  4  1  0  0  0  0
  4  5  1  0  0  0  0
  5  6  2  0  0  0  0
  5 10  1  0  0  0  0
  6  7  1  0  0  0  0
  6 17  1  0  0  0  0
  7  8  2  0  0  0  0
  7 18  1  0  0  0  0
  8  9  1  0  0  0  0
  8 19  1  0  0  0  0
  9 10  2  0  0  0  0
  9 20  1  0  0  0  0
 10 11  1  0  0  0  0
 11 12  2  0  0  0  0
 11 13  1  0  0  0  0
 13 21  1  0  0  0  0
M  END
>  <Energy>
138.786

$$$$
