Fluorbiprofeno
 OpenBabel04032412433D

 31 32  0  0  1  0  0  0  0  0999 V2000
    2.8825    0.5127    1.3927 C   0  0  0  0  0  0  0  0  0  0  0  0
    2.5938    0.1500   -0.0732 C   0  0  3  0  0  0  0  0  0  0  0  0
    3.0406   -1.2701   -0.3629 C   0  0  0  0  0  0  0  0  0  0  0  0
    4.0575   -1.5130   -1.2923 C   0  0  0  0  0  0  0  0  0  0  0  0
    4.4819   -2.8157   -1.5752 C   0  0  0  0  0  0  0  0  0  0  0  0
    3.8917   -3.9351   -0.9241 C   0  0  0  0  0  0  0  0  0  0  0  0
    2.8665   -3.6638    0.0155 C   0  0  0  0  0  0  0  0  0  0  0  0
    2.4496   -2.3599    0.2873 C   0  0  0  0  0  0  0  0  0  0  0  0
    4.3153   -5.3660   -1.1972 C   0  0  0  0  0  0  0  0  0  0  0  0
    4.0004   -6.4051   -0.2836 C   0  0  0  0  0  0  0  0  0  0  0  0
    4.3853   -7.7269   -0.5252 C   0  0  0  0  0  0  0  0  0  0  0  0
    5.0878   -8.0537   -1.6807 C   0  0  0  0  0  0  0  0  0  0  0  0
    5.4075   -7.0586   -2.5993 C   0  0  0  0  0  0  0  0  0  0  0  0
    5.0298   -5.7328   -2.3657 C   0  0  0  0  0  0  0  0  0  0  0  0
    5.4954   -2.9375   -2.4638 F   0  0  0  0  0  0  0  0  0  0  0  0
    1.1307    0.3175   -0.4364 C   0  0  0  0  0  0  0  0  0  0  0  0
    0.3102    0.6537    0.4042 O   0  0  0  0  0  0  0  0  0  0  0  0
    0.7174    0.1010   -1.7036 O   0  0  0  0  0  0  0  0  0  0  0  0
    3.9686    0.4068    1.6020 H   0  0  0  0  0  0  0  0  0  0  0  0
    2.3197   -0.1427    2.0908 H   0  0  0  0  0  0  0  0  0  0  0  0
    2.5938    1.5678    1.5878 H   0  0  0  0  0  0  0  0  0  0  0  0
    3.1724    0.8627   -0.7016 H   0  0  0  0  0  0  0  0  0  0  0  0
    4.5346   -0.6855   -1.8032 H   0  0  0  0  0  0  0  0  0  0  0  0
    2.3508   -4.4475    0.5457 H   0  0  0  0  0  0  0  0  0  0  0  0
    1.6561   -2.2019    1.0071 H   0  0  0  0  0  0  0  0  0  0  0  0
    3.4721   -6.2219    0.6376 H   0  0  0  0  0  0  0  0  0  0  0  0
    4.1381   -8.5008    0.1904 H   0  0  0  0  0  0  0  0  0  0  0  0
    5.3829   -9.0786   -1.8655 H   0  0  0  0  0  0  0  0  0  0  0  0
    5.9481   -7.3149   -3.5017 H   0  0  0  0  0  0  0  0  0  0  0  0
    5.2932   -5.0277   -3.1320 H   0  0  0  0  0  0  0  0  0  0  0  0
    1.3349   -0.1599   -2.4011 H   0  0  0  0  0  0  0  0  0  0  0  0
  1  2  1  0  0  0  0
  1 19  1  0  0  0  0
  1 20  1  0  0  0  0
  1 21  1  0  0  0  0
  2  3  1  0  0  0  0
  2 16  1  0  0  0  0
  2 22  1  0  0  0  0
  3  4  2  0  0  0  0
  3  8  1  0  0  0  0
  4  5  1  0  0  0  0
  4 23  1  0  0  0  0
  5  6  2  0  0  0  0
  5 15  1  0  0  0  0
  6  7  1  0  0  0  0
  6  9  1  0  0  0  0
  7  8  2  0  0  0  0
  7 24  1  0  0  0  0
  8 25  1  0  0  0  0
  9 10  2  0  0  0  0
  9 14  1  0  0  0  0
 10 11  1  0  0  0  0
 10 26  1  0  0  0  0
 11 12  2  0  0  0  0
 11 27  1  0  0  0  0
 12 13  1  0  0  0  0
 12 28  1  0  0  0  0
 13 14  2  0  0  0  0
 13 29  1  0  0  0  0
 14 30  1  0  0  0  0
 16 17  2  0  0  0  0
 16 18  1  0  0  0  0
 18 31  1  0  0  0  0
M  END
>  <Energy>
181.182

$$$$
