Naproxeno
 OpenBabel04032412433D

 31 32  0  0  1  0  0  0  0  0999 V2000
    1.0535    0.6255   -0.3207 C   0  0  0  0  0  0  0  0  0  0  0  0
    2.4172   -0.0509   -0.1052 C   0  0  3  0  0  0  0  0  0  0  0  0
    2.8579   -0.7639   -1.3689 C   0  0  0  0  0  0  0  0  0  0  0  0
    3.1158   -0.0448   -2.5515 C   0  0  0  0  0  0  0  0  0  0  0  0
    3.5254   -0.7112   -3.7161 C   0  0  0  0  0  0  0  0  0  0  0  0
    3.6808   -2.1160   -3.7029 C   0  0  0  0  0  0  0  0  0  0  0  0
    3.4246   -2.8306   -2.5246 C   0  0  0  0  0  0  0  0  0  0  0  0
    3.0176   -2.1601   -1.3685 C   0  0  0  0  0  0  0  0  0  0  0  0
    4.0907   -2.7820   -4.8680 C   0  0  0  0  0  0  0  0  0  0  0  0
    4.3483   -2.0689   -6.0456 C   0  0  0  0  0  0  0  0  0  0  0  0
    4.1913   -0.6679   -6.0505 C   0  0  0  0  0  0  0  0  0  0  0  0
    3.7833    0.0030   -4.8945 C   0  0  0  0  0  0  0  0  0  0  0  0
    4.7429   -2.7642   -7.1440 O   0  0  0  0  0  0  0  0  0  0  0  0
    5.0381   -2.2216   -8.3775 C   0  0  0  0  0  0  0  0  0  0  0  0
    3.4882    0.9273    0.3382 C   0  0  0  0  0  0  0  0  0  0  0  0
    3.2445    2.1202    0.4408 O   0  0  0  0  0  0  0  0  0  0  0  0
    4.7302    0.4862    0.6317 O   0  0  0  0  0  0  0  0  0  0  0  0
    0.2962   -0.1338   -0.6114 H   0  0  0  0  0  0  0  0  0  0  0  0
    1.1055    1.3990   -1.1160 H   0  0  0  0  0  0  0  0  0  0  0  0
    0.7153    1.1086    0.6209 H   0  0  0  0  0  0  0  0  0  0  0  0
    2.2847   -0.7887    0.7169 H   0  0  0  0  0  0  0  0  0  0  0  0
    2.9996    1.0327   -2.5613 H   0  0  0  0  0  0  0  0  0  0  0  0
    3.5393   -3.9078   -2.4969 H   0  0  0  0  0  0  0  0  0  0  0  0
    2.8263   -2.7345   -0.4707 H   0  0  0  0  0  0  0  0  0  0  0  0
    4.2121   -3.8593   -4.8656 H   0  0  0  0  0  0  0  0  0  0  0  0
    4.3822   -0.0871   -6.9428 H   0  0  0  0  0  0  0  0  0  0  0  0
    3.6695    1.0803   -4.9222 H   0  0  0  0  0  0  0  0  0  0  0  0
    5.3292   -3.0364   -9.0716 H   0  0  0  0  0  0  0  0  0  0  0  0
    5.8868   -1.5101   -8.2906 H   0  0  0  0  0  0  0  0  0  0  0  0
    4.1469   -1.7043   -8.7926 H   0  0  0  0  0  0  0  0  0  0  0  0
    4.9638   -0.4506    0.5699 H   0  0  0  0  0  0  0  0  0  0  0  0
  1  2  1  0  0  0  0
  1 18  1  0  0  0  0
  1 19  1  0  0  0  0
  1 20  1  0  0  0  0
  2  3  1  0  0  0  0
  2 15  1  0  0  0  0
  2 21  1  0  0  0  0
  3  4  2  0  0  0  0
  3  8  1  0  0  0  0
  4  5  1  0  0  0  0
  4 22  1  0  0  0  0
  5  6  2  0  0  0  0
  5 12  1  0  0  0  0
  6  7  1  0  0  0  0
  6  9  1  0  0  0  0
  7  8  2  0  0  0  0
  7 23  1  0  0  0  0
  8 24  1  0  0  0  0
  9 10  2  0  0  0  0
  9 25  1  0  0  0  0
 10 11  1  0  0  0  0
 10 13  1  0  0  0  0
 11 12  2  0  0  0  0
 11 26  1  0  0  0  0
 12 27  1  0  0  0  0
 13 14  1  0  0  0  0
 14 28  1  0  0  0  0
 14 29  1  0  0  0  0
 14 30  1  0  0  0  0
 15 16  2  0  0  0  0
 15 17  1  0  0  0  0
 17 31  1  0  0  0  0
M  END
>  <Energy>
133.053

$$$$
